Version 4.1
SHEET 1 1208 1160
WIRE 224 -288 192 -288
WIRE 16 -256 -240 -256
WIRE 224 -256 224 -288
WIRE 224 -256 16 -256
WIRE 336 -256 224 -256
WIRE 224 -224 224 -256
WIRE 16 -176 16 -256
WIRE 336 -160 336 -256
WIRE 384 -160 336 -160
WIRE 480 -144 448 -144
WIRE 384 -128 336 -128
WIRE 224 -112 224 -144
WIRE 224 -112 176 -112
WIRE 336 -112 336 -128
WIRE 336 -112 224 -112
WIRE 480 -64 480 -144
WIRE 480 -64 416 -64
WIRE 416 16 416 -64
WIRE 416 16 144 16
WIRE 464 16 416 16
WIRE -240 32 -240 -256
WIRE 176 96 176 -112
WIRE 416 96 416 16
WIRE 416 176 416 160
WIRE 16 224 16 -112
WIRE 64 224 64 16
WIRE 64 224 16 224
WIRE 160 224 160 192
WIRE 160 224 64 224
WIRE 16 256 16 224
WIRE -240 368 -240 112
WIRE 16 368 16 336
WIRE 16 368 -240 368
WIRE 192 368 192 192
WIRE 192 368 16 368
WIRE 416 368 416 176
WIRE 416 368 192 368
WIRE 192 384 192 368
FLAG 192 384 0
FLAG 192 -288 V_I
FLAG 464 16 V_O
SYMBOL DMN1019UVT 176 144 M90
SYMATTR InstName NMOS
SYMBOL voltage -240 16 R0
WINDOW 3 -349 63 Left 2
WINDOW 123 0 0 Left 0
WINDOW 39 0 0 Left 0
WINDOW 0 -71 24 Left 2
SYMATTR Value PULSE(0 5 0 1 1 0 0 20)
SYMATTR InstName V1
SYMBOL res 0 240 R0
SYMATTR InstName R3
SYMATTR Value 430k
SYMBOL res 160 0 R90
WINDOW 0 0 56 VBottom 2
WINDOW 3 32 56 VTop 2
SYMATTR InstName R2
SYMATTR Value 1000k
SYMBOL zener 32 -112 R180
WINDOW 0 24 64 Left 2
WINDOW 3 24 0 Left 2
SYMATTR InstName D1
SYMATTR Value MYD
SYMBOL res 400 80 R0
SYMATTR InstName Load
SYMATTR Value 1Meg
SYMBOL res 208 -240 R0
SYMATTR InstName R1
SYMATTR Value 10k
SYMBOL RZM002P02 416 -144 R180
SYMATTR InstName PMOS
TEXT -280 448 Left 2 !.tran 0 3 0 0.001
TEXT -280 424 Left 2 !.model MYD D(Ron=1u Roff=100Meg Vrev=2.4 Vfwd=1u)
